
*** ChampSim Multicore Out-of-Order Simulator ***

Warmup Instructions: 1000000
Simulation Instructions: 10000000
Number of CPUs: 2
LLC sets: 4096
LLC ways: 16
Off-chip DRAM Size: 8192 MB Channels: 2 Width: 64-bit Data Rate: 1600 MT/s

CPU 0 runs ../Traces/hmmer_397B.trace.gz
CPU 1 runs ../Traces/h264ref_178B.trace.gz
CPU 0 Bimodal branch predictor
CPU 1 Bimodal branch predictor
Initialize SRRIP state

Warmup complete CPU 0 instructions: 1000002 cycles: 624168 (Simulation time: 0 hr 0 min 5 sec) 
Warmup complete CPU 1 instructions: 1255544 cycles: 624167 (Simulation time: 0 hr 0 min 5 sec) 

Heartbeat CPU 0 instructions: 10000001 cycles: 8969196 heartbeat IPC: 1.11493 cumulative IPC: 1.07849 (Simulation time: 0 hr 0 min 47 sec) 
Finished CPU 0 instructions: 10000002 cycles: 9267017 cumulative IPC: 1.0791 (Simulation time: 0 hr 0 min 52 sec) 
Heartbeat CPU 1 instructions: 10000000 cycles: 12505069 heartbeat IPC: 0.799676 cumulative IPC: 0.736009 (Simulation time: 0 hr 1 min 7 sec) 
Finished CPU 1 instructions: 10000001 cycles: 13200701 cumulative IPC: 0.757536 (Simulation time: 0 hr 1 min 14 sec) 

CPU 0 Branch Prediction Accuracy: 99.3392% MPKI: 0.250472

CPU 1 Branch Prediction Accuracy: 92.5633% MPKI: 4.93733

ChampSim completed all CPUs

Total Simulation Statistics (not including warmup)

CPU 0 cumulative IPC: 1.06853 instructions: 14105373 cycles: 13200700
L1D TOTAL     ACCESS:    5777811  HIT:    5698675  MISS:      79136
L1D LOAD      ACCESS:    4603791  HIT:    4568229  MISS:      35562
L1D RFO       ACCESS:    1174020  HIT:    1130446  MISS:      43574
L1D PREFETCH  ACCESS:          0  HIT:          0  MISS:          0
L1D WRITEBACK ACCESS:          0  HIT:          0  MISS:          0
L1I TOTAL     ACCESS:    3735729  HIT:    3735167  MISS:        562
L1I LOAD      ACCESS:    3735729  HIT:    3735167  MISS:        562
L1I RFO       ACCESS:          0  HIT:          0  MISS:          0
L1I PREFETCH  ACCESS:          0  HIT:          0  MISS:          0
L1I WRITEBACK ACCESS:          0  HIT:          0  MISS:          0
L2C TOTAL     ACCESS:     123585  HIT:      74518  MISS:      49067
L2C LOAD      ACCESS:      36115  HIT:      30617  MISS:       5498
L2C RFO       ACCESS:      43573  HIT:         30  MISS:      43543
L2C PREFETCH  ACCESS:          0  HIT:          0  MISS:          0
L2C WRITEBACK ACCESS:      43897  HIT:      43871  MISS:         26
LLC TOTAL     ACCESS:      92234  HIT:      47127  MISS:      45107
LLC LOAD      ACCESS:       5498  HIT:       4093  MISS:       1405
LLC RFO       ACCESS:      43543  HIT:         26  MISS:      43517
LLC PREFETCH  ACCESS:          0  HIT:          0  MISS:          0
LLC WRITEBACK ACCESS:      43193  HIT:      43008  MISS:        185

CPU 1 cumulative IPC: 0.757536 instructions: 10000001 cycles: 13200701
L1D TOTAL     ACCESS:    2962332  HIT:    2933178  MISS:      29154
L1D LOAD      ACCESS:    2138513  HIT:    2117670  MISS:      20843
L1D RFO       ACCESS:     823819  HIT:     815508  MISS:       8311
L1D PREFETCH  ACCESS:          0  HIT:          0  MISS:          0
L1D WRITEBACK ACCESS:          0  HIT:          0  MISS:          0
L1I TOTAL     ACCESS:    2255699  HIT:    2248510  MISS:       7189
L1I LOAD      ACCESS:    2255699  HIT:    2248510  MISS:       7189
L1I RFO       ACCESS:          0  HIT:          0  MISS:          0
L1I PREFETCH  ACCESS:          0  HIT:          0  MISS:          0
L1I WRITEBACK ACCESS:          0  HIT:          0  MISS:          0
L2C TOTAL     ACCESS:      45116  HIT:      25825  MISS:      19291
L2C LOAD      ACCESS:      28032  HIT:      15679  MISS:      12353
L2C RFO       ACCESS:       8309  HIT:       1462  MISS:       6847
L2C PREFETCH  ACCESS:          0  HIT:          0  MISS:          0
L2C WRITEBACK ACCESS:       8775  HIT:       8684  MISS:         91
LLC TOTAL     ACCESS:      23343  HIT:       8606  MISS:      14737
LLC LOAD      ACCESS:      12353  HIT:       2915  MISS:       9438
LLC RFO       ACCESS:       6847  HIT:       1727  MISS:       5120
LLC PREFETCH  ACCESS:          0  HIT:          0  MISS:          0
LLC WRITEBACK ACCESS:       4143  HIT:       3964  MISS:        179

Printing BackHits Stats of CPU 0
Total Eviction count in LLC : 4295
L1 BackHit: 40	L2 BackHit: 246
Printing BackHits Stats of CPU 1
Total Eviction count in LLC : 1851
L1 BackHit: 26	L2 BackHit: 306

Printing Cross-Core Eviction count of CPU 0
Cross-Core Eviction Count: 177
Printing Cross-Core Eviction count of CPU 1
Cross-Core Eviction Count: 58

Region of Interest Statistics

CPU 0 cumulative IPC: 1.0791 instructions: 10000002 cycles: 9267017
L1D TOTAL     ACCESS:    4102919  HIT:    4048540  MISS:      54379
L1D LOAD      ACCESS:    3271424  HIT:    3247787  MISS:      23637
L1D RFO       ACCESS:     831495  HIT:     800753  MISS:      30742
L1D PREFETCH  ACCESS:          0  HIT:          0  MISS:          0
L1D WRITEBACK ACCESS:          0  HIT:          0  MISS:          0
L1D PREFETCH  REQUESTED:          0  ISSUED:          0  USEFUL:          0  USELESS:          0
L1I TOTAL     ACCESS:    2648928  HIT:    2648717  MISS:        211
L1I LOAD      ACCESS:    2648928  HIT:    2648717  MISS:        211
L1I RFO       ACCESS:          0  HIT:          0  MISS:          0
L1I PREFETCH  ACCESS:          0  HIT:          0  MISS:          0
L1I WRITEBACK ACCESS:          0  HIT:          0  MISS:          0
L1I PREFETCH  REQUESTED:          0  ISSUED:          0  USEFUL:          0  USELESS:          0
L2C TOTAL     ACCESS:      85504  HIT:      51808  MISS:      33696
L2C LOAD      ACCESS:      23844  HIT:      20907  MISS:       2937
L2C RFO       ACCESS:      30741  HIT:          0  MISS:      30741
L2C PREFETCH  ACCESS:          0  HIT:          0  MISS:          0
L2C WRITEBACK ACCESS:      30919  HIT:      30901  MISS:         18
L2C PREFETCH  REQUESTED:          0  ISSUED:          0  USEFUL:          0  USELESS:          0
LLC TOTAL     ACCESS:      63874  HIT:      32747  MISS:      31127
LLC LOAD      ACCESS:       2937  HIT:       2551  MISS:        386
LLC RFO       ACCESS:      30741  HIT:          0  MISS:      30741
LLC PREFETCH  ACCESS:          0  HIT:          0  MISS:          0
LLC WRITEBACK ACCESS:      30196  HIT:      30196  MISS:          0
LLC PREFETCH  REQUESTED:          0  ISSUED:          0  USEFUL:          0  USELESS:          0
Major fault: 0 Minor fault: 923

CPU 1 cumulative IPC: 0.757536 instructions: 10000001 cycles: 13200701
L1D TOTAL     ACCESS:    2962332  HIT:    2933178  MISS:      29154
L1D LOAD      ACCESS:    2138513  HIT:    2117670  MISS:      20843
L1D RFO       ACCESS:     823819  HIT:     815508  MISS:       8311
L1D PREFETCH  ACCESS:          0  HIT:          0  MISS:          0
L1D WRITEBACK ACCESS:          0  HIT:          0  MISS:          0
L1D PREFETCH  REQUESTED:          0  ISSUED:          0  USEFUL:          0  USELESS:          0
L1I TOTAL     ACCESS:    2255699  HIT:    2248510  MISS:       7189
L1I LOAD      ACCESS:    2255699  HIT:    2248510  MISS:       7189
L1I RFO       ACCESS:          0  HIT:          0  MISS:          0
L1I PREFETCH  ACCESS:          0  HIT:          0  MISS:          0
L1I WRITEBACK ACCESS:          0  HIT:          0  MISS:          0
L1I PREFETCH  REQUESTED:          0  ISSUED:          0  USEFUL:          0  USELESS:          0
L2C TOTAL     ACCESS:      45116  HIT:      25825  MISS:      19291
L2C LOAD      ACCESS:      28032  HIT:      15679  MISS:      12353
L2C RFO       ACCESS:       8309  HIT:       1462  MISS:       6847
L2C PREFETCH  ACCESS:          0  HIT:          0  MISS:          0
L2C WRITEBACK ACCESS:       8775  HIT:       8684  MISS:         91
L2C PREFETCH  REQUESTED:          0  ISSUED:          0  USEFUL:          0  USELESS:          0
LLC TOTAL     ACCESS:      23343  HIT:       8606  MISS:      14737
LLC LOAD      ACCESS:      12353  HIT:       2915  MISS:       9438
LLC RFO       ACCESS:       6847  HIT:       1727  MISS:       5120
LLC PREFETCH  ACCESS:          0  HIT:          0  MISS:          0
LLC WRITEBACK ACCESS:       4143  HIT:       3964  MISS:        179
LLC PREFETCH  REQUESTED:          0  ISSUED:          0  USEFUL:          0  USELESS:          0
Major fault: 0 Minor fault: 826

DRAM Statistics
 CHANNEL 0
 RQ ROW_BUFFER_HIT:      25953  ROW_BUFFER_MISS:       3796
 DBUS_CONGESTED:       2574
 WQ ROW_BUFFER_HIT:         49  ROW_BUFFER_MISS:         76  FULL:          0

 CHANNEL 1
 RQ ROW_BUFFER_HIT:      25901  ROW_BUFFER_MISS:       3830
 DBUS_CONGESTED:       2574
 WQ ROW_BUFFER_HIT:         48  ROW_BUFFER_MISS:         99  FULL:          0

 AVG_CONGESTED_CYCLE: 9
