
*** ChampSim Multicore Out-of-Order Simulator ***

Warmup Instructions: 1000000
Simulation Instructions: 10000000
Number of CPUs: 2
LLC sets: 4096
LLC ways: 16
Off-chip DRAM Size: 8192 MB Channels: 2 Width: 64-bit Data Rate: 1600 MT/s

CPU 0 runs ../Traces/hmmer_397B.trace.gz
CPU 1 runs ../Traces/h264ref_178B.trace.gz
CPU 0 Bimodal branch predictor
CPU 1 Bimodal branch predictor
Initialize SRRIP state

Warmup complete CPU 0 instructions: 1000002 cycles: 624168 (Simulation time: 0 hr 0 min 5 sec) 
Warmup complete CPU 1 instructions: 1255544 cycles: 624167 (Simulation time: 0 hr 0 min 5 sec) 

Heartbeat CPU 0 instructions: 10000001 cycles: 8969196 heartbeat IPC: 1.11493 cumulative IPC: 1.07849 (Simulation time: 0 hr 0 min 47 sec) 
Finished CPU 0 instructions: 10000002 cycles: 9267017 cumulative IPC: 1.0791 (Simulation time: 0 hr 0 min 53 sec) 
Heartbeat CPU 1 instructions: 10000000 cycles: 12505093 heartbeat IPC: 0.799674 cumulative IPC: 0.736008 (Simulation time: 0 hr 1 min 8 sec) 
Finished CPU 1 instructions: 10000001 cycles: 13200095 cumulative IPC: 0.75757 (Simulation time: 0 hr 1 min 16 sec) 

CPU 0 Branch Prediction Accuracy: 99.3387% MPKI: 0.250673

CPU 1 Branch Prediction Accuracy: 92.5633% MPKI: 4.93733

ChampSim completed all CPUs

Total Simulation Statistics (not including warmup)

CPU 0 cumulative IPC: 1.06923 instructions: 14113991 cycles: 13200094
L1D TOTAL     ACCESS:    5780953  HIT:    5701784  MISS:      79169
L1D LOAD      ACCESS:    4606467  HIT:    4570896  MISS:      35571
L1D RFO       ACCESS:    1174486  HIT:    1130888  MISS:      43598
L1D PREFETCH  ACCESS:          0  HIT:          0  MISS:          0
L1D WRITEBACK ACCESS:          0  HIT:          0  MISS:          0
L1I TOTAL     ACCESS:    3738025  HIT:    3737462  MISS:        563
L1I LOAD      ACCESS:    3738025  HIT:    3737462  MISS:        563
L1I RFO       ACCESS:          0  HIT:          0  MISS:          0
L1I PREFETCH  ACCESS:          0  HIT:          0  MISS:          0
L1I WRITEBACK ACCESS:          0  HIT:          0  MISS:          0
L2C TOTAL     ACCESS:     123630  HIT:      74572  MISS:      49058
L2C LOAD      ACCESS:      36125  HIT:      30660  MISS:       5465
L2C RFO       ACCESS:      43597  HIT:         30  MISS:      43567
L2C PREFETCH  ACCESS:          0  HIT:          0  MISS:          0
L2C WRITEBACK ACCESS:      43908  HIT:      43882  MISS:         26
LLC TOTAL     ACCESS:      92242  HIT:      47360  MISS:      44882
LLC LOAD      ACCESS:       5465  HIT:       4124  MISS:       1341
LLC RFO       ACCESS:      43567  HIT:         26  MISS:      43541
LLC PREFETCH  ACCESS:          0  HIT:          0  MISS:          0
LLC WRITEBACK ACCESS:      43210  HIT:      43210  MISS:          0

CPU 1 cumulative IPC: 0.75757 instructions: 10000001 cycles: 13200095
L1D TOTAL     ACCESS:    2962337  HIT:    2933183  MISS:      29154
L1D LOAD      ACCESS:    2138518  HIT:    2117675  MISS:      20843
L1D RFO       ACCESS:     823819  HIT:     815508  MISS:       8311
L1D PREFETCH  ACCESS:          0  HIT:          0  MISS:          0
L1D WRITEBACK ACCESS:          0  HIT:          0  MISS:          0
L1I TOTAL     ACCESS:    2255766  HIT:    2248573  MISS:       7193
L1I LOAD      ACCESS:    2255766  HIT:    2248573  MISS:       7193
L1I RFO       ACCESS:          0  HIT:          0  MISS:          0
L1I PREFETCH  ACCESS:          0  HIT:          0  MISS:          0
L1I WRITEBACK ACCESS:          0  HIT:          0  MISS:          0
L2C TOTAL     ACCESS:      45120  HIT:      25842  MISS:      19278
L2C LOAD      ACCESS:      28036  HIT:      15694  MISS:      12342
L2C RFO       ACCESS:       8309  HIT:       1463  MISS:       6846
L2C PREFETCH  ACCESS:          0  HIT:          0  MISS:          0
L2C WRITEBACK ACCESS:       8775  HIT:       8685  MISS:         90
LLC TOTAL     ACCESS:      23300  HIT:       8779  MISS:      14521
LLC LOAD      ACCESS:      12342  HIT:       2951  MISS:       9391
LLC RFO       ACCESS:       6846  HIT:       1716  MISS:       5130
LLC PREFETCH  ACCESS:          0  HIT:          0  MISS:          0
LLC WRITEBACK ACCESS:       4112  HIT:       4112  MISS:          0

Printing BackHits Stats of CPU 0
Total Eviction count in LLC : 4194
L1 BackHit: 0	L2 BackHit: 0
Printing BackHits Stats of CPU 1
Total Eviction count in LLC : 1868
L1 BackHit: 0	L2 BackHit: 0

Printing Cross-Core Eviction count of CPU 0
Cross-Core Eviction Count: 0
Printing Cross-Core Eviction count of CPU 1
Cross-Core Eviction Count: 0

Region of Interest Statistics

CPU 0 cumulative IPC: 1.0791 instructions: 10000002 cycles: 9267017
L1D TOTAL     ACCESS:    4102919  HIT:    4048540  MISS:      54379
L1D LOAD      ACCESS:    3271424  HIT:    3247787  MISS:      23637
L1D RFO       ACCESS:     831495  HIT:     800753  MISS:      30742
L1D PREFETCH  ACCESS:          0  HIT:          0  MISS:          0
L1D WRITEBACK ACCESS:          0  HIT:          0  MISS:          0
L1D PREFETCH  REQUESTED:          0  ISSUED:          0  USEFUL:          0  USELESS:          0
L1I TOTAL     ACCESS:    2648928  HIT:    2648717  MISS:        211
L1I LOAD      ACCESS:    2648928  HIT:    2648717  MISS:        211
L1I RFO       ACCESS:          0  HIT:          0  MISS:          0
L1I PREFETCH  ACCESS:          0  HIT:          0  MISS:          0
L1I WRITEBACK ACCESS:          0  HIT:          0  MISS:          0
L1I PREFETCH  REQUESTED:          0  ISSUED:          0  USEFUL:          0  USELESS:          0
L2C TOTAL     ACCESS:      85504  HIT:      51808  MISS:      33696
L2C LOAD      ACCESS:      23844  HIT:      20907  MISS:       2937
L2C RFO       ACCESS:      30741  HIT:          0  MISS:      30741
L2C PREFETCH  ACCESS:          0  HIT:          0  MISS:          0
L2C WRITEBACK ACCESS:      30919  HIT:      30901  MISS:         18
L2C PREFETCH  REQUESTED:          0  ISSUED:          0  USEFUL:          0  USELESS:          0
LLC TOTAL     ACCESS:      63874  HIT:      32747  MISS:      31127
LLC LOAD      ACCESS:       2937  HIT:       2551  MISS:        386
LLC RFO       ACCESS:      30741  HIT:          0  MISS:      30741
LLC PREFETCH  ACCESS:          0  HIT:          0  MISS:          0
LLC WRITEBACK ACCESS:      30196  HIT:      30196  MISS:          0
LLC PREFETCH  REQUESTED:          0  ISSUED:          0  USEFUL:          0  USELESS:          0
Major fault: 0 Minor fault: 926

CPU 1 cumulative IPC: 0.75757 instructions: 10000001 cycles: 13200095
L1D TOTAL     ACCESS:    2962337  HIT:    2933183  MISS:      29154
L1D LOAD      ACCESS:    2138518  HIT:    2117675  MISS:      20843
L1D RFO       ACCESS:     823819  HIT:     815508  MISS:       8311
L1D PREFETCH  ACCESS:          0  HIT:          0  MISS:          0
L1D WRITEBACK ACCESS:          0  HIT:          0  MISS:          0
L1D PREFETCH  REQUESTED:          0  ISSUED:          0  USEFUL:          0  USELESS:          0
L1I TOTAL     ACCESS:    2255766  HIT:    2248573  MISS:       7193
L1I LOAD      ACCESS:    2255766  HIT:    2248573  MISS:       7193
L1I RFO       ACCESS:          0  HIT:          0  MISS:          0
L1I PREFETCH  ACCESS:          0  HIT:          0  MISS:          0
L1I WRITEBACK ACCESS:          0  HIT:          0  MISS:          0
L1I PREFETCH  REQUESTED:          0  ISSUED:          0  USEFUL:          0  USELESS:          0
L2C TOTAL     ACCESS:      45120  HIT:      25842  MISS:      19278
L2C LOAD      ACCESS:      28036  HIT:      15694  MISS:      12342
L2C RFO       ACCESS:       8309  HIT:       1463  MISS:       6846
L2C PREFETCH  ACCESS:          0  HIT:          0  MISS:          0
L2C WRITEBACK ACCESS:       8775  HIT:       8685  MISS:         90
L2C PREFETCH  REQUESTED:          0  ISSUED:          0  USEFUL:          0  USELESS:          0
LLC TOTAL     ACCESS:      23300  HIT:       8779  MISS:      14521
LLC LOAD      ACCESS:      12342  HIT:       2951  MISS:       9391
LLC RFO       ACCESS:       6846  HIT:       1716  MISS:       5130
LLC PREFETCH  ACCESS:          0  HIT:          0  MISS:          0
LLC WRITEBACK ACCESS:       4112  HIT:       4112  MISS:          0
LLC PREFETCH  REQUESTED:          0  ISSUED:          0  USEFUL:          0  USELESS:          0
Major fault: 0 Minor fault: 826

DRAM Statistics
 CHANNEL 0
 RQ ROW_BUFFER_HIT:      25928  ROW_BUFFER_MISS:       3781
 DBUS_CONGESTED:       2898
 WQ ROW_BUFFER_HIT:         65  ROW_BUFFER_MISS:        218  FULL:          0

 CHANNEL 1
 RQ ROW_BUFFER_HIT:      25872  ROW_BUFFER_MISS:       3822
 DBUS_CONGESTED:       2898
 WQ ROW_BUFFER_HIT:         68  ROW_BUFFER_MISS:        236  FULL:          0

 AVG_CONGESTED_CYCLE: 10
