
*** ChampSim Multicore Out-of-Order Simulator ***

Warmup Instructions: 1000000
Simulation Instructions: 10000000
Number of CPUs: 4
LLC sets: 512
LLC ways: 16
Off-chip DRAM Size: 8192 MB Channels: 2 Width: 64-bit Data Rate: 1600 MT/s

CPU 0 runs ../Traces/h264ref_178B.trace.gz
CPU 1 runs ../Traces/gcc_39B.trace.gz
CPU 2 runs ../Traces/hmmer_397B.trace.gz
CPU 3 runs ../Traces/milc_409B.trace.gz
CPU 0 Bimodal branch predictor
CPU 1 Bimodal branch predictor
CPU 2 Bimodal branch predictor
CPU 3 Bimodal branch predictor
Initialize SRRIP state

Warmup complete CPU 0 instructions: 1255198 cycles: 624309 (Simulation time: 0 hr 0 min 11 sec) 
Warmup complete CPU 1 instructions: 1209752 cycles: 624309 (Simulation time: 0 hr 0 min 11 sec) 
Warmup complete CPU 2 instructions: 1000002 cycles: 624309 (Simulation time: 0 hr 0 min 11 sec) 
Warmup complete CPU 3 instructions: 1515416 cycles: 624308 (Simulation time: 0 hr 0 min 11 sec) 

Heartbeat CPU 2 instructions: 10000001 cycles: 10622526 heartbeat IPC: 0.941396 cumulative IPC: 0.90016 (Simulation time: 0 hr 1 min 34 sec) 
Finished CPU 2 instructions: 10000000 cycles: 11089859 cumulative IPC: 0.901725 (Simulation time: 0 hr 1 min 44 sec) 
Heartbeat CPU 1 instructions: 10000000 cycles: 13334889 heartbeat IPC: 0.749913 cumulative IPC: 0.691569 (Simulation time: 0 hr 1 min 58 sec) 
Heartbeat CPU 0 instructions: 10000000 cycles: 13459373 heartbeat IPC: 0.742977 cumulative IPC: 0.681321 (Simulation time: 0 hr 1 min 59 sec) 
Finished CPU 0 instructions: 10000003 cycles: 14223121 cumulative IPC: 0.703081 (Simulation time: 0 hr 2 min 11 sec) 
Finished CPU 1 instructions: 10000001 cycles: 14449662 cumulative IPC: 0.692058 (Simulation time: 0 hr 2 min 12 sec) 
Heartbeat CPU 2 instructions: 20000000 cycles: 21594235 heartbeat IPC: 0.911435 cumulative IPC: 0.906059 (Simulation time: 0 hr 3 min 12 sec) 
Heartbeat CPU 0 instructions: 20000000 cycles: 24211087 heartbeat IPC: 0.930084 cumulative IPC: 0.794717 (Simulation time: 0 hr 3 min 37 sec) 
Heartbeat CPU 3 instructions: 10000002 cycles: 24233742 heartbeat IPC: 0.412648 cumulative IPC: 0.359373 (Simulation time: 0 hr 3 min 37 sec) 
Finished CPU 3 instructions: 10000002 cycles: 26814652 cumulative IPC: 0.372931 (Simulation time: 0 hr 4 min 6 sec) 

CPU 0 Branch Prediction Accuracy: 91.7897% MPKI: 3.74574

CPU 1 Branch Prediction Accuracy: 99.296% MPKI: 1.37595

CPU 2 Branch Prediction Accuracy: 99.261% MPKI: 0.283398

CPU 3 Branch Prediction Accuracy: 99.9902% MPKI: 0.00247256

ChampSim completed all CPUs

Total Simulation Statistics (not including warmup)

CPU 0 cumulative IPC: 0.813117 instructions: 21803461 cycles: 26814651
L1D TOTAL     ACCESS:    6425620  HIT:    6362930  MISS:      62690
L1D LOAD      ACCESS:    5198301  HIT:    5159154  MISS:      39147
L1D RFO       ACCESS:    1227319  HIT:    1203776  MISS:      23543
L1D PREFETCH  ACCESS:          0  HIT:          0  MISS:          0
L1D WRITEBACK ACCESS:          0  HIT:          0  MISS:          0
L1I TOTAL     ACCESS:    4576728  HIT:    4568465  MISS:       8263
L1I LOAD      ACCESS:    4576728  HIT:    4568465  MISS:       8263
L1I RFO       ACCESS:          0  HIT:          0  MISS:          0
L1I PREFETCH  ACCESS:          0  HIT:          0  MISS:          0
L1I WRITEBACK ACCESS:          0  HIT:          0  MISS:          0
L2C TOTAL     ACCESS:      95038  HIT:      54062  MISS:      40976
L2C LOAD      ACCESS:      47410  HIT:      28950  MISS:      18460
L2C RFO       ACCESS:      23541  HIT:       1635  MISS:      21906
L2C PREFETCH  ACCESS:          0  HIT:          0  MISS:          0
L2C WRITEBACK ACCESS:      24087  HIT:      23477  MISS:        610
LLC TOTAL     ACCESS:      59732  HIT:       2703  MISS:      57029
LLC LOAD      ACCESS:      18459  HIT:        644  MISS:      17815
LLC RFO       ACCESS:      21906  HIT:         22  MISS:      21884
LLC PREFETCH  ACCESS:          0  HIT:          0  MISS:          0
LLC WRITEBACK ACCESS:      19367  HIT:       2037  MISS:      17330

CPU 1 cumulative IPC: 0.698114 instructions: 18719671 cycles: 26814651
L1D TOTAL     ACCESS:    6696043  HIT:    6520728  MISS:     175315
L1D LOAD      ACCESS:    3393835  HIT:    3219341  MISS:     174494
L1D RFO       ACCESS:    3302208  HIT:    3301387  MISS:        821
L1D PREFETCH  ACCESS:          0  HIT:          0  MISS:          0
L1D WRITEBACK ACCESS:          0  HIT:          0  MISS:          0
L1I TOTAL     ACCESS:    6743239  HIT:    6742883  MISS:        356
L1I LOAD      ACCESS:    6743239  HIT:    6742883  MISS:        356
L1I RFO       ACCESS:          0  HIT:          0  MISS:          0
L1I PREFETCH  ACCESS:          0  HIT:          0  MISS:          0
L1I WRITEBACK ACCESS:          0  HIT:          0  MISS:          0
L2C TOTAL     ACCESS:     180395  HIT:     173361  MISS:       7034
L2C LOAD      ACCESS:     174850  HIT:     168585  MISS:       6265
L2C RFO       ACCESS:        820  HIT:        163  MISS:        657
L2C PREFETCH  ACCESS:          0  HIT:          0  MISS:          0
L2C WRITEBACK ACCESS:       4725  HIT:       4613  MISS:        112
LLC TOTAL     ACCESS:       7673  HIT:         36  MISS:       7637
LLC LOAD      ACCESS:       6264  HIT:          5  MISS:       6259
LLC RFO       ACCESS:        657  HIT:          0  MISS:        657
LLC PREFETCH  ACCESS:          0  HIT:          0  MISS:          0
LLC WRITEBACK ACCESS:        752  HIT:         31  MISS:        721

CPU 2 cumulative IPC: 0.911542 instructions: 24442690 cycles: 26814651
L1D TOTAL     ACCESS:    9926892  HIT:    9787550  MISS:     139342
L1D LOAD      ACCESS:    7946753  HIT:    7883090  MISS:      63663
L1D RFO       ACCESS:    1980139  HIT:    1904460  MISS:      75679
L1D PREFETCH  ACCESS:          0  HIT:          0  MISS:          0
L1D WRITEBACK ACCESS:          0  HIT:          0  MISS:          0
L1I TOTAL     ACCESS:    6489757  HIT:    6488362  MISS:       1395
L1I LOAD      ACCESS:    6489757  HIT:    6488362  MISS:       1395
L1I RFO       ACCESS:          0  HIT:          0  MISS:          0
L1I PREFETCH  ACCESS:          0  HIT:          0  MISS:          0
L1I WRITEBACK ACCESS:          0  HIT:          0  MISS:          0
L2C TOTAL     ACCESS:     217093  HIT:     126343  MISS:      90750
L2C LOAD      ACCESS:      65016  HIT:      53646  MISS:      11370
L2C RFO       ACCESS:      75655  HIT:        360  MISS:      75295
L2C PREFETCH  ACCESS:          0  HIT:          0  MISS:          0
L2C WRITEBACK ACCESS:      76422  HIT:      72337  MISS:       4085
LLC TOTAL     ACCESS:     161175  HIT:        891  MISS:     160284
LLC LOAD      ACCESS:      11363  HIT:         54  MISS:      11309
LLC RFO       ACCESS:      75277  HIT:         27  MISS:      75250
LLC PREFETCH  ACCESS:          0  HIT:          0  MISS:          0
LLC WRITEBACK ACCESS:      74535  HIT:        810  MISS:      73725

CPU 3 cumulative IPC: 0.372931 instructions: 10000002 cycles: 26814652
L1D TOTAL     ACCESS:    2886062  HIT:    2512449  MISS:     373613
L1D LOAD      ACCESS:    1014578  HIT:     765405  MISS:     249173
L1D RFO       ACCESS:    1871484  HIT:    1747044  MISS:     124440
L1D PREFETCH  ACCESS:          0  HIT:          0  MISS:          0
L1D WRITEBACK ACCESS:          0  HIT:          0  MISS:          0
L1I TOTAL     ACCESS:    2454622  HIT:    2454062  MISS:        560
L1I LOAD      ACCESS:    2454622  HIT:    2454062  MISS:        560
L1I RFO       ACCESS:          0  HIT:          0  MISS:          0
L1I PREFETCH  ACCESS:          0  HIT:          0  MISS:          0
L1I WRITEBACK ACCESS:          0  HIT:          0  MISS:          0
L2C TOTAL     ACCESS:     546473  HIT:     169779  MISS:     376694
L2C LOAD      ACCESS:     249732  HIT:         22  MISS:     249710
L2C RFO       ACCESS:     124439  HIT:        190  MISS:     124249
L2C PREFETCH  ACCESS:          0  HIT:          0  MISS:          0
L2C WRITEBACK ACCESS:     172302  HIT:     169567  MISS:       2735
LLC TOTAL     ACCESS:     548448  HIT:      23181  MISS:     525267
LLC LOAD      ACCESS:     249710  HIT:        232  MISS:     249478
LLC RFO       ACCESS:     124249  HIT:          0  MISS:     124249
LLC PREFETCH  ACCESS:          0  HIT:          0  MISS:          0
LLC WRITEBACK ACCESS:     174489  HIT:      22949  MISS:     151540

Printing BackHits Stats of CPU 0
Total Eviction count in LLC : 45273
L1 BackHit: 3863	L2 BackHit: 21029
Printing BackHits Stats of CPU 1
Total Eviction count in LLC : 7172
L1 BackHit: 2120	L2 BackHit: 4875
Printing BackHits Stats of CPU 2
Total Eviction count in LLC : 89653
L1 BackHit: 6419	L2 BackHit: 15623
Printing BackHits Stats of CPU 3
Total Eviction count in LLC : 398604
L1 BackHit: 4992	L2 BackHit: 141994

Printing Cross-Core Eviction count of CPU 0
Cross-Core Eviction Count: 50
Printing Cross-Core Eviction count of CPU 1
Cross-Core Eviction Count: 71
Printing Cross-Core Eviction count of CPU 2
Cross-Core Eviction Count: 15825
Printing Cross-Core Eviction count of CPU 3
Cross-Core Eviction Count: 922

Region of Interest Statistics

CPU 0 cumulative IPC: 0.703081 instructions: 10000003 cycles: 14223121
L1D TOTAL     ACCESS:    2960191  HIT:    2930802  MISS:      29389
L1D LOAD      ACCESS:    2136522  HIT:    2115483  MISS:      21039
L1D RFO       ACCESS:     823669  HIT:     815319  MISS:       8350
L1D PREFETCH  ACCESS:          0  HIT:          0  MISS:          0
L1D WRITEBACK ACCESS:          0  HIT:          0  MISS:          0
L1D PREFETCH  REQUESTED:          0  ISSUED:          0  USEFUL:          0  USELESS:          0
L1I TOTAL     ACCESS:    2253945  HIT:    2246660  MISS:       7285
L1I LOAD      ACCESS:    2253945  HIT:    2246660  MISS:       7285
L1I RFO       ACCESS:          0  HIT:          0  MISS:          0
L1I PREFETCH  ACCESS:          0  HIT:          0  MISS:          0
L1I WRITEBACK ACCESS:          0  HIT:          0  MISS:          0
L1I PREFETCH  REQUESTED:          0  ISSUED:          0  USEFUL:          0  USELESS:          0
L2C TOTAL     ACCESS:      45522  HIT:      24592  MISS:      20930
L2C LOAD      ACCESS:      28324  HIT:      14526  MISS:      13798
L2C RFO       ACCESS:       8348  HIT:       1446  MISS:       6902
L2C PREFETCH  ACCESS:          0  HIT:          0  MISS:          0
L2C WRITEBACK ACCESS:       8850  HIT:       8620  MISS:        230
L2C PREFETCH  REQUESTED:          0  ISSUED:          0  USEFUL:          0  USELESS:          0
LLC TOTAL     ACCESS:      25123  HIT:       1184  MISS:      23939
LLC LOAD      ACCESS:      13797  HIT:        258  MISS:      13539
LLC RFO       ACCESS:       6902  HIT:         17  MISS:       6885
LLC PREFETCH  ACCESS:          0  HIT:          0  MISS:          0
LLC WRITEBACK ACCESS:       4424  HIT:        909  MISS:       3515
LLC PREFETCH  REQUESTED:          0  ISSUED:          0  USEFUL:          0  USELESS:          0
Major fault: 0 Minor fault: 1116

CPU 1 cumulative IPC: 0.692058 instructions: 10000001 cycles: 14449662
L1D TOTAL     ACCESS:    3574449  HIT:    3480764  MISS:      93685
L1D LOAD      ACCESS:    1810418  HIT:    1717211  MISS:      93207
L1D RFO       ACCESS:    1764031  HIT:    1763553  MISS:        478
L1D PREFETCH  ACCESS:          0  HIT:          0  MISS:          0
L1D WRITEBACK ACCESS:          0  HIT:          0  MISS:          0
L1D PREFETCH  REQUESTED:          0  ISSUED:          0  USEFUL:          0  USELESS:          0
L1I TOTAL     ACCESS:    3600642  HIT:    3600358  MISS:        284
L1I LOAD      ACCESS:    3600642  HIT:    3600358  MISS:        284
L1I RFO       ACCESS:          0  HIT:          0  MISS:          0
L1I PREFETCH  ACCESS:          0  HIT:          0  MISS:          0
L1I WRITEBACK ACCESS:          0  HIT:          0  MISS:          0
L1I PREFETCH  REQUESTED:          0  ISSUED:          0  USEFUL:          0  USELESS:          0
L2C TOTAL     ACCESS:      96570  HIT:      92067  MISS:       4503
L2C LOAD      ACCESS:      93491  HIT:      89485  MISS:       4006
L2C RFO       ACCESS:        477  HIT:         85  MISS:        392
L2C PREFETCH  ACCESS:          0  HIT:          0  MISS:          0
L2C WRITEBACK ACCESS:       2602  HIT:       2497  MISS:        105
L2C PREFETCH  REQUESTED:          0  ISSUED:          0  USEFUL:          0  USELESS:          0
LLC TOTAL     ACCESS:       4780  HIT:         19  MISS:       4761
LLC LOAD      ACCESS:       4005  HIT:          4  MISS:       4001
LLC RFO       ACCESS:        392  HIT:          0  MISS:        392
LLC PREFETCH  ACCESS:          0  HIT:          0  MISS:          0
LLC WRITEBACK ACCESS:        383  HIT:         15  MISS:        368
LLC PREFETCH  REQUESTED:          0  ISSUED:          0  USEFUL:          0  USELESS:          0
Major fault: 0 Minor fault: 694

CPU 2 cumulative IPC: 0.901725 instructions: 10000000 cycles: 11089859
L1D TOTAL     ACCESS:    4073610  HIT:    4018503  MISS:      55107
L1D LOAD      ACCESS:    3264513  HIT:    3240281  MISS:      24232
L1D RFO       ACCESS:     809097  HIT:     778222  MISS:      30875
L1D PREFETCH  ACCESS:          0  HIT:          0  MISS:          0
L1D WRITEBACK ACCESS:          0  HIT:          0  MISS:          0
L1D PREFETCH  REQUESTED:          0  ISSUED:          0  USEFUL:          0  USELESS:          0
L1I TOTAL     ACCESS:    2658285  HIT:    2657916  MISS:        369
L1I LOAD      ACCESS:    2658285  HIT:    2657916  MISS:        369
L1I RFO       ACCESS:          0  HIT:          0  MISS:          0
L1I PREFETCH  ACCESS:          0  HIT:          0  MISS:          0
L1I WRITEBACK ACCESS:          0  HIT:          0  MISS:          0
L1I PREFETCH  REQUESTED:          0  ISSUED:          0  USEFUL:          0  USELESS:          0
L2C TOTAL     ACCESS:      86560  HIT:      50394  MISS:      36166
L2C LOAD      ACCESS:      24589  HIT:      20679  MISS:       3910
L2C RFO       ACCESS:      30870  HIT:         68  MISS:      30802
L2C PREFETCH  ACCESS:          0  HIT:          0  MISS:          0
L2C WRITEBACK ACCESS:      31101  HIT:      29647  MISS:       1454
L2C PREFETCH  REQUESTED:          0  ISSUED:          0  USEFUL:          0  USELESS:          0
LLC TOTAL     ACCESS:      64509  HIT:        380  MISS:      64129
LLC LOAD      ACCESS:       3907  HIT:         22  MISS:       3885
LLC RFO       ACCESS:      30793  HIT:         17  MISS:      30776
LLC PREFETCH  ACCESS:          0  HIT:          0  MISS:          0
LLC WRITEBACK ACCESS:      29809  HIT:        341  MISS:      29468
LLC PREFETCH  REQUESTED:          0  ISSUED:          0  USEFUL:          0  USELESS:          0
Major fault: 0 Minor fault: 1035

CPU 3 cumulative IPC: 0.372931 instructions: 10000002 cycles: 26814652
L1D TOTAL     ACCESS:    2886062  HIT:    2512449  MISS:     373613
L1D LOAD      ACCESS:    1014578  HIT:     765405  MISS:     249173
L1D RFO       ACCESS:    1871484  HIT:    1747044  MISS:     124440
L1D PREFETCH  ACCESS:          0  HIT:          0  MISS:          0
L1D WRITEBACK ACCESS:          0  HIT:          0  MISS:          0
L1D PREFETCH  REQUESTED:          0  ISSUED:          0  USEFUL:          0  USELESS:          0
L1I TOTAL     ACCESS:    2454622  HIT:    2454062  MISS:        560
L1I LOAD      ACCESS:    2454622  HIT:    2454062  MISS:        560
L1I RFO       ACCESS:          0  HIT:          0  MISS:          0
L1I PREFETCH  ACCESS:          0  HIT:          0  MISS:          0
L1I WRITEBACK ACCESS:          0  HIT:          0  MISS:          0
L1I PREFETCH  REQUESTED:          0  ISSUED:          0  USEFUL:          0  USELESS:          0
L2C TOTAL     ACCESS:     546473  HIT:     169779  MISS:     376694
L2C LOAD      ACCESS:     249732  HIT:         22  MISS:     249710
L2C RFO       ACCESS:     124439  HIT:        190  MISS:     124249
L2C PREFETCH  ACCESS:          0  HIT:          0  MISS:          0
L2C WRITEBACK ACCESS:     172302  HIT:     169567  MISS:       2735
L2C PREFETCH  REQUESTED:          0  ISSUED:          0  USEFUL:          0  USELESS:          0
LLC TOTAL     ACCESS:     548448  HIT:      23181  MISS:     525267
LLC LOAD      ACCESS:     249710  HIT:        232  MISS:     249478
LLC RFO       ACCESS:     124249  HIT:          0  MISS:     124249
LLC PREFETCH  ACCESS:          0  HIT:          0  MISS:          0
LLC WRITEBACK ACCESS:     174489  HIT:      22949  MISS:     151540
LLC PREFETCH  REQUESTED:          0  ISSUED:          0  USEFUL:          0  USELESS:          0
Major fault: 0 Minor fault: 17373

DRAM Statistics
 CHANNEL 0
 RQ ROW_BUFFER_HIT:     194106  ROW_BUFFER_MISS:      71353
 DBUS_CONGESTED:     379121
 WQ ROW_BUFFER_HIT:      63218  ROW_BUFFER_MISS:      71222  FULL:          0

 CHANNEL 1
 RQ ROW_BUFFER_HIT:     172593  ROW_BUFFER_MISS:      68791
 DBUS_CONGESTED:     379121
 WQ ROW_BUFFER_HIT:      63711  ROW_BUFFER_MISS:      70692  FULL:          0

 AVG_CONGESTED_CYCLE: 13
